LAMMPS (29 Sep 2021 - Update 2)
variable temp index 100000 90000 81000 72900 65610 59049 53144 47829 43046 38741 34866 31379 28241 25416 22874 20586 18527 16674 15006 13505 12154 10938 9844 8859 7973 7175 6457 5811 5229 4706 4235 3811 3429 3086 2777 2499 2249 2024 1821 1638 1474 1326 1193 1073 965 868 781 702 631 567 510 459 413 371 333 299 269 242 217 195 175 157 141 126 113 101 90 81 72 64 57 51 45 40 36 32 28 25 22 19 17 15 13 11 9 8 7 6 5 4 3 2 1
variable rand equal round(random(0,1e7,452345))

include settings.lmp
units              real
atom_style         full
timestep	   1.0
boundary	   p p p

pair_style         lj/cut/coul/long 12.0
kspace_style       pppm 1.0e-6

pair_modify        mix arithmetic
special_bonds      amber
neighbor           2.0 bin
neigh_modify       every 1 delay 0 check yes

read_data magnetite_bulk_3x3x3.data
Reading data file ...
  orthogonal box = (-0.25841700 -0.25841700 -0.25841700) to (25.181583 25.181583 25.181583)
  reading atoms ...
  1512 atoms
  reading velocities ...
  1512 velocities
Finding 1-2 1-3 1-4 neighbors ...
     0 = max # of 1-2 neighbors
     0 = max # of 1-3 neighbors
     0 = max # of 1-4 neighbors
     1 = max # of special neighbors

include  ff_formic_acid_fe304.param
#####################-----magnetite-----#########################################

mass  1   55.845   # Iron(II)
mass  2   55.845   # Iron(III)
mass  3   15.9994  # Bridging oxygen

pair_coeff  1  1   9.0298e-07  4.90620  # fe2
pair_coeff  2  2   9.0298e-07  4.90620  # fe3
pair_coeff  3  3   0.1554      3.16554  # ob

##################################################################################

dump  dmp all custom 1000 swap.lammpstrj id mol type q x y z
dump_modify dmp sort id

group  fe type 1 2
648 atoms in group fe
variable nfe equal count(fe)
variable nsteps equal round(648*648)
variable pe1 equal 0.0  # Initial pe decleration

compute  coord fe coord/atom cutoff 2.0
dump coord  fe custom 1 fe.coord id type c_coord
dump_modify  coord sort id
run  0
PPPM initialization ...
  G vector (1/distance) = 0.2971196
  grid = 40 40 40
  stencil order = 5
  estimated absolute RMS force accuracy = 0.00037285856
  estimated relative force accuracy = 1.1228525e-06
  3d grid and FFT values/proc = 9367 1600
  update every 1 steps, delay 0 steps, check yes
Step Temp E_pair E_mol TotEng Press
0            0   -282119.82            0   -282119.82    1192.6469
Loop time of 4.79778e-05 on 40 procs for 0 steps with 1512 atoms

variable  fet atom c_coord==4
group  fet variable fet
216 atoms in group fet
group  feo subtract fe fet
432 atoms in group feo
undump  coord

set  group all mol 0
Setting atom values ...
  1512 settings made for mol
set  group fet mol 1
Setting atom values ...
  216 settings made for mol
set  group feo mol 2
Setting atom values ...
  432 settings made for mol

variable  fet3 atom "gmask(fet) && q == 1.575"
group  fet3 dynamic fe var fet3 every 100
dynamic group fet3 defined
variable  rfet3 equal count(fet3)/count(fet)

variable  feo3 atom "gmask(feo) && q == 1.575"
group  feo3 dynamic fe var feo3 every 100
dynamic group feo3 defined
variable  rfeo3 equal count(feo3)/count(feo)

variable cnum equal 93

label temp_loop

  variable ftemp equal v_temp
  # Electrostatic relaxation-long
  fix  swp fe atom/swap 1 1 855824 100000 ke no types 1 2
  thermo  1000
  thermo_style custom step v_ftemp pe f_swp[1] f_swp[2] v_rfet3 v_rfeo3
  run  419904
PPPM initialization ...
  G vector (1/distance) = 0.2971196
  grid = 40 40 40
  stencil order = 5
  estimated absolute RMS force accuracy = 0.00037285856
  estimated relative force accuracy = 1.1228525e-06
  3d grid and FFT values/proc = 9367 1600
Step v_ftemp PotEng f_swp[1] f_swp[2] v_rfet3 v_rfeo3
0       100000   -282119.82            0            0            1          0.5
Averages over the last 211 of 421 rows, steps 210000 to 419904:
v_ftemp PotEng f_swp[1] f_swp[2] v_rfet3 v_rfeo3
100000 -281263 315000 285673 0.673907 0.663046
Loop time of 3732.71 on 40 procs for 419904 steps with 1512 atoms

  variable cnum equal 93-1

  unfix swp
  thermo_style custom step temp pe

next temp
jump SELF temp_loop

  variable ftemp equal v_temp
  # Electrostatic relaxation-long
  fix  swp fe atom/swap 1 1 710414 90000 ke no types 1 2
  thermo  1000
  thermo_style custom step v_ftemp pe f_swp[1] f_swp[2] v_rfet3 v_rfeo3
  run  419904
PPPM initialization ...
  G vector (1/distance) = 0.2971196
  grid = 40 40 40
  stencil order = 5
  estimated absolute RMS force accuracy = 0.00037285856
  estimated relative force accuracy = 1.1228525e-06
  3d grid and FFT values/proc = 9367 1600
Step v_ftemp PotEng f_swp[1] f_swp[2] v_rfet3 v_rfeo3
419904        90000    -280957.8            0            0   0.66203704   0.66898148
Averages over the last 211 of 422 rows, steps 630000 to 839808:
v_ftemp PotEng f_swp[1] f_swp[2] v_rfet3 v_rfeo3
90000 -281353 315095 282665 0.677352 0.661324
Loop time of 3700.93 on 40 procs for 419904 steps with 1512 atoms

  variable cnum equal 92-1

  unfix swp
  thermo_style custom step temp pe

next temp
jump SELF temp_loop

  variable ftemp equal v_temp
  # Electrostatic relaxation-long
  fix  swp fe atom/swap 1 1 755762 81000 ke no types 1 2
  thermo  1000
  thermo_style custom step v_ftemp pe f_swp[1] f_swp[2] v_rfet3 v_rfeo3
  run  419904
PPPM initialization ...
  G vector (1/distance) = 0.2971196
  grid = 40 40 40
  stencil order = 5
  estimated absolute RMS force accuracy = 0.00037285856
  estimated relative force accuracy = 1.1228525e-06
  3d grid and FFT values/proc = 9367 1600
Step v_ftemp PotEng f_swp[1] f_swp[2] v_rfet3 v_rfeo3
839808        81000   -281210.04            0            0   0.66203704   0.66898148
Averages over the last 211 of 422 rows, steps 1050000 to 1259712:
v_ftemp PotEng f_swp[1] f_swp[2] v_rfet3 v_rfeo3
81000 -281378 315191 279937 0.67959 0.660205
Loop time of 3699.01 on 40 procs for 419904 steps with 1512 atoms

  variable cnum equal 91-1

  unfix swp
  thermo_style custom step temp pe

next temp
jump SELF temp_loop

  variable ftemp equal v_temp
  # Electrostatic relaxation-long
  fix  swp fe atom/swap 1 1 4574249 72900 ke no types 1 2
  thermo  1000
  thermo_style custom step v_ftemp pe f_swp[1] f_swp[2] v_rfet3 v_rfeo3
  run  419904
PPPM initialization ...
  G vector (1/distance) = 0.2971196
  grid = 40 40 40
  stencil order = 5
  estimated absolute RMS force accuracy = 0.00037285856
  estimated relative force accuracy = 1.1228525e-06
  3d grid and FFT values/proc = 9367 1600
Step v_ftemp PotEng f_swp[1] f_swp[2] v_rfet3 v_rfeo3
1259712        72900   -281084.58            0            0   0.60648148   0.69675926
Averages over the last 211 of 422 rows, steps 1470000 to 1679616:
v_ftemp PotEng f_swp[1] f_swp[2] v_rfet3 v_rfeo3
72900 -281417 315286 276464 0.680534 0.659733
Loop time of 3702.86 on 40 procs for 419904 steps with 1512 atoms

  variable cnum equal 90-1

  unfix swp
  thermo_style custom step temp pe

next temp
jump SELF temp_loop

  variable ftemp equal v_temp
  # Electrostatic relaxation-long
  fix  swp fe atom/swap 1 1 5979850 65610 ke no types 1 2
  thermo  1000
  thermo_style custom step v_ftemp pe f_swp[1] f_swp[2] v_rfet3 v_rfeo3
  run  419904
PPPM initialization ...
  G vector (1/distance) = 0.2971196
  grid = 40 40 40
  stencil order = 5
  estimated absolute RMS force accuracy = 0.00037285856
  estimated relative force accuracy = 1.1228525e-06
  3d grid and FFT values/proc = 9367 1600
Step v_ftemp PotEng f_swp[1] f_swp[2] v_rfet3 v_rfeo3
1679616        65610   -281399.69            0            0   0.68055556   0.65972222
Averages over the last 211 of 422 rows, steps 1890000 to 2099520:
v_ftemp PotEng f_swp[1] f_swp[2] v_rfet3 v_rfeo3
65610 -281437 315382 272999 0.684615 0.657693
Loop time of 3702.63 on 40 procs for 419904 steps with 1512 atoms

  variable cnum equal 89-1

  unfix swp
  thermo_style custom step temp pe

next temp
jump SELF temp_loop

  variable ftemp equal v_temp
  # Electrostatic relaxation-long
  fix  swp fe atom/swap 1 1 2707118 59049 ke no types 1 2
  thermo  1000
  thermo_style custom step v_ftemp pe f_swp[1] f_swp[2] v_rfet3 v_rfeo3
  run  419904
PPPM initialization ...
  G vector (1/distance) = 0.2971196
  grid = 40 40 40
  stencil order = 5
  estimated absolute RMS force accuracy = 0.00037285856
  estimated relative force accuracy = 1.1228525e-06
  3d grid and FFT values/proc = 9367 1600
Step v_ftemp PotEng f_swp[1] f_swp[2] v_rfet3 v_rfeo3
2099520        59049   -281398.88            0            0   0.67592593   0.66203704
Averages over the last 211 of 422 rows, steps 2310000 to 2519424:
v_ftemp PotEng f_swp[1] f_swp[2] v_rfet3 v_rfeo3
59049 -281499 315477 269660 0.687752 0.656124
Loop time of 3702.08 on 40 procs for 419904 steps with 1512 atoms

  variable cnum equal 88-1

  unfix swp
  thermo_style custom step temp pe

next temp
jump SELF temp_loop

  variable ftemp equal v_temp
  # Electrostatic relaxation-long
  fix  swp fe atom/swap 1 1 1165944 53144 ke no types 1 2
  thermo  1000
  thermo_style custom step v_ftemp pe f_swp[1] f_swp[2] v_rfet3 v_rfeo3
  run  419904
PPPM initialization ...
  G vector (1/distance) = 0.2971196
  grid = 40 40 40
  stencil order = 5
  estimated absolute RMS force accuracy = 0.00037285856
  estimated relative force accuracy = 1.1228525e-06
  3d grid and FFT values/proc = 9367 1600
Step v_ftemp PotEng f_swp[1] f_swp[2] v_rfet3 v_rfeo3
2519424        53144   -280697.43            0            0   0.64814815   0.67592593
Averages over the last 211 of 422 rows, steps 2730000 to 2939328:
v_ftemp PotEng f_swp[1] f_swp[2] v_rfet3 v_rfeo3
53144 -281540 315573 265554 0.689288 0.655356
Loop time of 3700.17 on 40 procs for 419904 steps with 1512 atoms

  variable cnum equal 87-1

  unfix swp
  thermo_style custom step temp pe

next temp
jump SELF temp_loop

  variable ftemp equal v_temp
  # Electrostatic relaxation-long
  fix  swp fe atom/swap 1 1 3631288 47829 ke no types 1 2
  thermo  1000
  thermo_style custom step v_ftemp pe f_swp[1] f_swp[2] v_rfet3 v_rfeo3
  run  419904
PPPM initialization ...
  G vector (1/distance) = 0.2971196
  grid = 40 40 40
  stencil order = 5
  estimated absolute RMS force accuracy = 0.00037285856
  estimated relative force accuracy = 1.1228525e-06
  3d grid and FFT values/proc = 9367 1600
Step v_ftemp PotEng f_swp[1] f_swp[2] v_rfet3 v_rfeo3
2939328        47829   -280929.31            0            0   0.62037037   0.68981481
Averages over the last 211 of 422 rows, steps 3150000 to 3359232:
v_ftemp PotEng f_swp[1] f_swp[2] v_rfet3 v_rfeo3
47829 -281565 315668 261314 0.687182 0.656409
Loop time of 3703.16 on 40 procs for 419904 steps with 1512 atoms

  variable cnum equal 86-1

  unfix swp
  thermo_style custom step temp pe

next temp
jump SELF temp_loop

  variable ftemp equal v_temp
  # Electrostatic relaxation-long
  fix  swp fe atom/swap 1 1 7952271 43046 ke no types 1 2
  thermo  1000
  thermo_style custom step v_ftemp pe f_swp[1] f_swp[2] v_rfet3 v_rfeo3
  run  419904
PPPM initialization ...
  G vector (1/distance) = 0.2971196
  grid = 40 40 40
  stencil order = 5
  estimated absolute RMS force accuracy = 0.00037285856
  estimated relative force accuracy = 1.1228525e-06
  3d grid and FFT values/proc = 9367 1600
Step v_ftemp PotEng f_swp[1] f_swp[2] v_rfet3 v_rfeo3
3359232        43046   -281392.45            0            0   0.64351852   0.67824074
Averages over the last 211 of 422 rows, steps 3570000 to 3779136:
v_ftemp PotEng f_swp[1] f_swp[2] v_rfet3 v_rfeo3
43046 -281647 315764 256605 0.694949 0.652525
Loop time of 3702.22 on 40 procs for 419904 steps with 1512 atoms

  variable cnum equal 85-1

  unfix swp
  thermo_style custom step temp pe

next temp
jump SELF temp_loop

  variable ftemp equal v_temp
  # Electrostatic relaxation-long
  fix  swp fe atom/swap 1 1 185888 38741 ke no types 1 2
  thermo  1000
  thermo_style custom step v_ftemp pe f_swp[1] f_swp[2] v_rfet3 v_rfeo3
  run  419904
PPPM initialization ...
  G vector (1/distance) = 0.2971196
  grid = 40 40 40
  stencil order = 5
  estimated absolute RMS force accuracy = 0.00037285856
  estimated relative force accuracy = 1.1228525e-06
  3d grid and FFT values/proc = 9367 1600
Step v_ftemp PotEng f_swp[1] f_swp[2] v_rfet3 v_rfeo3
3779136        38741   -282012.57            0            0    0.7037037   0.64814815
Averages over the last 211 of 422 rows, steps 3990000 to 4199040:
v_ftemp PotEng f_swp[1] f_swp[2] v_rfet3 v_rfeo3
38741 -281660 315859 251716 0.69552 0.65224
Loop time of 3708.99 on 40 procs for 419904 steps with 1512 atoms

  variable cnum equal 84-1

  unfix swp
  thermo_style custom step temp pe

next temp
jump SELF temp_loop

  variable ftemp equal v_temp
  # Electrostatic relaxation-long
  fix  swp fe atom/swap 1 1 7935996 34866 ke no types 1 2
  thermo  1000
  thermo_style custom step v_ftemp pe f_swp[1] f_swp[2] v_rfet3 v_rfeo3
  run  419904
PPPM initialization ...
  G vector (1/distance) = 0.2971196
  grid = 40 40 40
  stencil order = 5
  estimated absolute RMS force accuracy = 0.00037285856
  estimated relative force accuracy = 1.1228525e-06
  3d grid and FFT values/proc = 9367 1600
Step v_ftemp PotEng f_swp[1] f_swp[2] v_rfet3 v_rfeo3
4199040        34866   -281597.29            0            0   0.69907407   0.65046296
Averages over the last 211 of 421 rows, steps 4409000 to 4618944:
v_ftemp PotEng f_swp[1] f_swp[2] v_rfet3 v_rfeo3
34866 -281699 314960 245783 0.699974 0.650013
Loop time of 3707.23 on 40 procs for 419904 steps with 1512 atoms

  variable cnum equal 83-1

  unfix swp
  thermo_style custom step temp pe

next temp
jump SELF temp_loop

  variable ftemp equal v_temp
  # Electrostatic relaxation-long
  fix  swp fe atom/swap 1 1 473855 31379 ke no types 1 2
  thermo  1000
  thermo_style custom step v_ftemp pe f_swp[1] f_swp[2] v_rfet3 v_rfeo3
  run  419904
PPPM initialization ...
  G vector (1/distance) = 0.2971196
  grid = 40 40 40
  stencil order = 5
  estimated absolute RMS force accuracy = 0.00037285856
  estimated relative force accuracy = 1.1228525e-06
  3d grid and FFT values/proc = 9367 1600
Step v_ftemp PotEng f_swp[1] f_swp[2] v_rfet3 v_rfeo3
4618944        31379   -281169.55            0            0   0.65740741    0.6712963
Averages over the last 211 of 422 rows, steps 4829000 to 5038848:
v_ftemp PotEng f_swp[1] f_swp[2] v_rfet3 v_rfeo3
31379 -281758 315055 240169 0.701597 0.649201
Loop time of 3705.7 on 40 procs for 419904 steps with 1512 atoms

  variable cnum equal 82-1

  unfix swp
  thermo_style custom step temp pe

next temp
jump SELF temp_loop

  variable ftemp equal v_temp
  # Electrostatic relaxation-long
  fix  swp fe atom/swap 1 1 7716369 28241 ke no types 1 2
  thermo  1000
  thermo_style custom step v_ftemp pe f_swp[1] f_swp[2] v_rfet3 v_rfeo3
  run  419904
PPPM initialization ...
  G vector (1/distance) = 0.2971196
  grid = 40 40 40
  stencil order = 5
  estimated absolute RMS force accuracy = 0.00037285856
  estimated relative force accuracy = 1.1228525e-06
  3d grid and FFT values/proc = 9367 1600
Step v_ftemp PotEng f_swp[1] f_swp[2] v_rfet3 v_rfeo3
5038848        28241   -281780.83            0            0   0.68981481   0.65509259
Averages over the last 211 of 422 rows, steps 5249000 to 5458752:
v_ftemp PotEng f_swp[1] f_swp[2] v_rfet3 v_rfeo3
28241 -281812 315151 233729 0.706095 0.646952
Loop time of 3701.64 on 40 procs for 419904 steps with 1512 atoms

  variable cnum equal 81-1

  unfix swp
  thermo_style custom step temp pe

next temp
jump SELF temp_loop

  variable ftemp equal v_temp
  # Electrostatic relaxation-long
  fix  swp fe atom/swap 1 1 8487327 25416 ke no types 1 2
  thermo  1000
  thermo_style custom step v_ftemp pe f_swp[1] f_swp[2] v_rfet3 v_rfeo3
  run  419904
PPPM initialization ...
  G vector (1/distance) = 0.2971196
  grid = 40 40 40
  stencil order = 5
  estimated absolute RMS force accuracy = 0.00037285856
  estimated relative force accuracy = 1.1228525e-06
  3d grid and FFT values/proc = 9367 1600
Step v_ftemp PotEng f_swp[1] f_swp[2] v_rfet3 v_rfeo3
5458752        25416    -281888.1            0            0   0.71296296   0.64351852
Averages over the last 211 of 422 rows, steps 5669000 to 5878656:
v_ftemp PotEng f_swp[1] f_swp[2] v_rfet3 v_rfeo3
25416 -281877 315246 227709 0.709584 0.645208
Loop time of 3705.31 on 40 procs for 419904 steps with 1512 atoms

  variable cnum equal 80-1

  unfix swp
  thermo_style custom step temp pe

next temp
jump SELF temp_loop

  variable ftemp equal v_temp
  # Electrostatic relaxation-long
  fix  swp fe atom/swap 1 1 8505477 22874 ke no types 1 2
  thermo  1000
  thermo_style custom step v_ftemp pe f_swp[1] f_swp[2] v_rfet3 v_rfeo3
  run  419904
PPPM initialization ...
  G vector (1/distance) = 0.2971196
  grid = 40 40 40
  stencil order = 5
  estimated absolute RMS force accuracy = 0.00037285856
  estimated relative force accuracy = 1.1228525e-06
  3d grid and FFT values/proc = 9367 1600
Step v_ftemp PotEng f_swp[1] f_swp[2] v_rfet3 v_rfeo3
5878656        22874   -281912.94            0            0   0.68518519   0.65740741
Averages over the last 211 of 422 rows, steps 6089000 to 6298560:
v_ftemp PotEng f_swp[1] f_swp[2] v_rfet3 v_rfeo3
22874 -281964 315342 220649 0.714521 0.64274
Loop time of 3701.02 on 40 procs for 419904 steps with 1512 atoms

  variable cnum equal 79-1

  unfix swp
  thermo_style custom step temp pe

next temp
jump SELF temp_loop

  variable ftemp equal v_temp
  # Electrostatic relaxation-long
  fix  swp fe atom/swap 1 1 980195 20586 ke no types 1 2
  thermo  1000
  thermo_style custom step v_ftemp pe f_swp[1] f_swp[2] v_rfet3 v_rfeo3
  run  419904
PPPM initialization ...
  G vector (1/distance) = 0.2971196
  grid = 40 40 40
  stencil order = 5
  estimated absolute RMS force accuracy = 0.00037285856
  estimated relative force accuracy = 1.1228525e-06
  3d grid and FFT values/proc = 9367 1600
Step v_ftemp PotEng f_swp[1] f_swp[2] v_rfet3 v_rfeo3
6298560        20586   -281979.07            0            0   0.71296296   0.64351852
Averages over the last 211 of 422 rows, steps 6509000 to 6718464:
v_ftemp PotEng f_swp[1] f_swp[2] v_rfet3 v_rfeo3
20586 -282011 315437 213121 0.72593 0.637035
Loop time of 3705.7 on 40 procs for 419904 steps with 1512 atoms

  variable cnum equal 78-1

  unfix swp
  thermo_style custom step temp pe

next temp
jump SELF temp_loop

  variable ftemp equal v_temp
  # Electrostatic relaxation-long
  fix  swp fe atom/swap 1 1 2065900 18527 ke no types 1 2
  thermo  1000
  thermo_style custom step v_ftemp pe f_swp[1] f_swp[2] v_rfet3 v_rfeo3
  run  419904
PPPM initialization ...
  G vector (1/distance) = 0.2971196
  grid = 40 40 40
  stencil order = 5
  estimated absolute RMS force accuracy = 0.00037285856
  estimated relative force accuracy = 1.1228525e-06
  3d grid and FFT values/proc = 9367 1600
Step v_ftemp PotEng f_swp[1] f_swp[2] v_rfet3 v_rfeo3
6718464        18527   -282041.32            0            0   0.74074074   0.62962963
Averages over the last 211 of 422 rows, steps 6929000 to 7138368:
v_ftemp PotEng f_swp[1] f_swp[2] v_rfet3 v_rfeo3
18527 -282081 315533 205956 0.732754 0.633623
Loop time of 3698.99 on 40 procs for 419904 steps with 1512 atoms

  variable cnum equal 77-1

  unfix swp
  thermo_style custom step temp pe

next temp
jump SELF temp_loop

  variable ftemp equal v_temp
  # Electrostatic relaxation-long
  fix  swp fe atom/swap 1 1 5185835 16674 ke no types 1 2
  thermo  1000
  thermo_style custom step v_ftemp pe f_swp[1] f_swp[2] v_rfet3 v_rfeo3
  run  419904
PPPM initialization ...
  G vector (1/distance) = 0.2971196
  grid = 40 40 40
  stencil order = 5
  estimated absolute RMS force accuracy = 0.00037285856
  estimated relative force accuracy = 1.1228525e-06
  3d grid and FFT values/proc = 9367 1600
Step v_ftemp PotEng f_swp[1] f_swp[2] v_rfet3 v_rfeo3
7138368        16674   -282101.06            0            0   0.71296296   0.64351852
Averages over the last 211 of 422 rows, steps 7349000 to 7558272:
v_ftemp PotEng f_swp[1] f_swp[2] v_rfet3 v_rfeo3
16674 -282125 315629 197379 0.732337 0.633831
Loop time of 3704.9 on 40 procs for 419904 steps with 1512 atoms

  variable cnum equal 76-1

  unfix swp
  thermo_style custom step temp pe

next temp
jump SELF temp_loop

  variable ftemp equal v_temp
  # Electrostatic relaxation-long
  fix  swp fe atom/swap 1 1 3359353 15006 ke no types 1 2
  thermo  1000
  thermo_style custom step v_ftemp pe f_swp[1] f_swp[2] v_rfet3 v_rfeo3
  run  419904
PPPM initialization ...
  G vector (1/distance) = 0.2971196
  grid = 40 40 40
  stencil order = 5
  estimated absolute RMS force accuracy = 0.00037285856
  estimated relative force accuracy = 1.1228525e-06
  3d grid and FFT values/proc = 9367 1600
Step v_ftemp PotEng f_swp[1] f_swp[2] v_rfet3 v_rfeo3
7558272        15006   -282015.28            0            0   0.73148148   0.63425926
Averages over the last 211 of 422 rows, steps 7769000 to 7978176:
v_ftemp PotEng f_swp[1] f_swp[2] v_rfet3 v_rfeo3
15006 -282204 315724 188608 0.740829 0.629586
Loop time of 3701.14 on 40 procs for 419904 steps with 1512 atoms

  variable cnum equal 75-1

  unfix swp
  thermo_style custom step temp pe

next temp
jump SELF temp_loop

  variable ftemp equal v_temp
  # Electrostatic relaxation-long
  fix  swp fe atom/swap 1 1 6806545 13505 ke no types 1 2
  thermo  1000
  thermo_style custom step v_ftemp pe f_swp[1] f_swp[2] v_rfet3 v_rfeo3
  run  419904
PPPM initialization ...
  G vector (1/distance) = 0.2971196
  grid = 40 40 40
  stencil order = 5
  estimated absolute RMS force accuracy = 0.00037285856
  estimated relative force accuracy = 1.1228525e-06
  3d grid and FFT values/proc = 9367 1600
Step v_ftemp PotEng f_swp[1] f_swp[2] v_rfet3 v_rfeo3
7978176        13505   -282186.98            0            0   0.68055556   0.65972222
Averages over the last 211 of 422 rows, steps 8189000 to 8398080:
v_ftemp PotEng f_swp[1] f_swp[2] v_rfet3 v_rfeo3
13505 -282293 315820 179423 0.756802 0.621599
Loop time of 3702.57 on 40 procs for 419904 steps with 1512 atoms

  variable cnum equal 74-1

  unfix swp
  thermo_style custom step temp pe

next temp
jump SELF temp_loop

  variable ftemp equal v_temp
  # Electrostatic relaxation-long
  fix  swp fe atom/swap 1 1 594805 12154 ke no types 1 2
  thermo  1000
  thermo_style custom step v_ftemp pe f_swp[1] f_swp[2] v_rfet3 v_rfeo3
  run  419904
PPPM initialization ...
  G vector (1/distance) = 0.2971196
  grid = 40 40 40
  stencil order = 5
  estimated absolute RMS force accuracy = 0.00037285856
  estimated relative force accuracy = 1.1228525e-06
  3d grid and FFT values/proc = 9367 1600
Step v_ftemp PotEng f_swp[1] f_swp[2] v_rfet3 v_rfeo3
8398080        12154   -282454.92            0            0   0.77777778   0.61111111
Averages over the last 211 of 421 rows, steps 8608000 to 8817984:
v_ftemp PotEng f_swp[1] f_swp[2] v_rfet3 v_rfeo3
12154 -282356 314920 168927 0.761497 0.619251
Loop time of 3703.2 on 40 procs for 419904 steps with 1512 atoms

  variable cnum equal 73-1

  unfix swp
  thermo_style custom step temp pe

next temp
jump SELF temp_loop

  variable ftemp equal v_temp
  # Electrostatic relaxation-long
  fix  swp fe atom/swap 1 1 3129163 10938 ke no types 1 2
  thermo  1000
  thermo_style custom step v_ftemp pe f_swp[1] f_swp[2] v_rfet3 v_rfeo3
  run  419904
PPPM initialization ...
  G vector (1/distance) = 0.2971196
  grid = 40 40 40
  stencil order = 5
  estimated absolute RMS force accuracy = 0.00037285856
  estimated relative force accuracy = 1.1228525e-06
  3d grid and FFT values/proc = 9367 1600
Step v_ftemp PotEng f_swp[1] f_swp[2] v_rfet3 v_rfeo3
8817984        10938    -282295.3            0            0   0.75462963   0.62268519
Averages over the last 211 of 422 rows, steps 9028000 to 9237888:
v_ftemp PotEng f_swp[1] f_swp[2] v_rfet3 v_rfeo3
10938 -282439 315015 158907 0.771919 0.61404
Loop time of 3707.4 on 40 procs for 419904 steps with 1512 atoms

  variable cnum equal 72-1

  unfix swp
  thermo_style custom step temp pe

next temp
jump SELF temp_loop

  variable ftemp equal v_temp
  # Electrostatic relaxation-long
  fix  swp fe atom/swap 1 1 8397505 9844 ke no types 1 2
  thermo  1000
  thermo_style custom step v_ftemp pe f_swp[1] f_swp[2] v_rfet3 v_rfeo3
  run  419904
PPPM initialization ...
  G vector (1/distance) = 0.2971196
  grid = 40 40 40
  stencil order = 5
  estimated absolute RMS force accuracy = 0.00037285856
  estimated relative force accuracy = 1.1228525e-06
  3d grid and FFT values/proc = 9367 1600
Step v_ftemp PotEng f_swp[1] f_swp[2] v_rfet3 v_rfeo3
9237888         9844   -282348.83            0            0   0.76388889   0.61805556
Averages over the last 211 of 422 rows, steps 9448000 to 9657792:
v_ftemp PotEng f_swp[1] f_swp[2] v_rfet3 v_rfeo3
9844 -282515 315111 149144 0.783439 0.608281
Loop time of 3705.84 on 40 procs for 419904 steps with 1512 atoms

  variable cnum equal 71-1

  unfix swp
  thermo_style custom step temp pe

next temp
jump SELF temp_loop

  variable ftemp equal v_temp
  # Electrostatic relaxation-long
  fix  swp fe atom/swap 1 1 7746391 8859 ke no types 1 2
  thermo  1000
  thermo_style custom step v_ftemp pe f_swp[1] f_swp[2] v_rfet3 v_rfeo3
  run  419904
PPPM initialization ...
  G vector (1/distance) = 0.2971196
  grid = 40 40 40
  stencil order = 5
  estimated absolute RMS force accuracy = 0.00037285856
  estimated relative force accuracy = 1.1228525e-06
  3d grid and FFT values/proc = 9367 1600
Step v_ftemp PotEng f_swp[1] f_swp[2] v_rfet3 v_rfeo3
9657792         8859   -282547.04            0            0   0.77777778   0.61111111
Averages over the last 211 of 422 rows, steps 9868000 to 10077696:
v_ftemp PotEng f_swp[1] f_swp[2] v_rfet3 v_rfeo3
8859 -282597 315207 138122 0.794826 0.602587
Loop time of 3714.52 on 40 procs for 419904 steps with 1512 atoms

  variable cnum equal 70-1

  unfix swp
  thermo_style custom step temp pe

next temp
jump SELF temp_loop

  variable ftemp equal v_temp
  # Electrostatic relaxation-long
  fix  swp fe atom/swap 1 1 6520128 7973 ke no types 1 2
  thermo  1000
  thermo_style custom step v_ftemp pe f_swp[1] f_swp[2] v_rfet3 v_rfeo3
  run  419904
PPPM initialization ...
  G vector (1/distance) = 0.2971196
  grid = 40 40 40
  stencil order = 5
  estimated absolute RMS force accuracy = 0.00037285856
  estimated relative force accuracy = 1.1228525e-06
  3d grid and FFT values/proc = 9367 1600
Step v_ftemp PotEng f_swp[1] f_swp[2] v_rfet3 v_rfeo3
10077696         7973   -282454.14            0            0   0.77777778   0.61111111
Averages over the last 211 of 422 rows, steps 10288000 to 10497600:
v_ftemp PotEng f_swp[1] f_swp[2] v_rfet3 v_rfeo3
7973 -282701 315302 127440 0.808562 0.595719
Loop time of 3705.3 on 40 procs for 419904 steps with 1512 atoms

  variable cnum equal 69-1

  unfix swp
  thermo_style custom step temp pe

next temp
jump SELF temp_loop

  variable ftemp equal v_temp
  # Electrostatic relaxation-long
  fix  swp fe atom/swap 1 1 4419602 7175 ke no types 1 2
  thermo  1000
  thermo_style custom step v_ftemp pe f_swp[1] f_swp[2] v_rfet3 v_rfeo3
  run  419904
PPPM initialization ...
  G vector (1/distance) = 0.2971196
  grid = 40 40 40
  stencil order = 5
  estimated absolute RMS force accuracy = 0.00037285856
  estimated relative force accuracy = 1.1228525e-06
  3d grid and FFT values/proc = 9367 1600
Step v_ftemp PotEng f_swp[1] f_swp[2] v_rfet3 v_rfeo3
10497600         7175   -282650.77            0            0   0.79166667   0.60416667
Averages over the last 211 of 422 rows, steps 10708000 to 10917504:
v_ftemp PotEng f_swp[1] f_swp[2] v_rfet3 v_rfeo3
7175 -282792 315398 116435 0.825829 0.587085
Loop time of 3712.22 on 40 procs for 419904 steps with 1512 atoms

  variable cnum equal 68-1

  unfix swp
  thermo_style custom step temp pe

next temp
jump SELF temp_loop

  variable ftemp equal v_temp
  # Electrostatic relaxation-long
  fix  swp fe atom/swap 1 1 2199081 6457 ke no types 1 2
  thermo  1000
  thermo_style custom step v_ftemp pe f_swp[1] f_swp[2] v_rfet3 v_rfeo3
  run  419904
PPPM initialization ...
  G vector (1/distance) = 0.2971196
  grid = 40 40 40
  stencil order = 5
  estimated absolute RMS force accuracy = 0.00037285856
  estimated relative force accuracy = 1.1228525e-06
  3d grid and FFT values/proc = 9367 1600
Step v_ftemp PotEng f_swp[1] f_swp[2] v_rfet3 v_rfeo3
10917504         6457   -282736.67            0            0   0.85185185   0.57407407
Averages over the last 211 of 422 rows, steps 11128000 to 11337408:
v_ftemp PotEng f_swp[1] f_swp[2] v_rfet3 v_rfeo3
6457 -282889 315493 104662 0.841934 0.579033
Loop time of 3708.57 on 40 procs for 419904 steps with 1512 atoms

  variable cnum equal 67-1

  unfix swp
  thermo_style custom step temp pe

next temp
jump SELF temp_loop

  variable ftemp equal v_temp
  # Electrostatic relaxation-long
  fix  swp fe atom/swap 1 1 6067438 5811 ke no types 1 2
  thermo  1000
  thermo_style custom step v_ftemp pe f_swp[1] f_swp[2] v_rfet3 v_rfeo3
  run  419904
PPPM initialization ...
  G vector (1/distance) = 0.2971196
  grid = 40 40 40
  stencil order = 5
  estimated absolute RMS force accuracy = 0.00037285856
  estimated relative force accuracy = 1.1228525e-06
  3d grid and FFT values/proc = 9367 1600
Step v_ftemp PotEng f_swp[1] f_swp[2] v_rfet3 v_rfeo3
11337408         5811   -282685.24            0            0   0.77777778   0.61111111
Averages over the last 211 of 422 rows, steps 11548000 to 11757312:
v_ftemp PotEng f_swp[1] f_swp[2] v_rfet3 v_rfeo3
5811 -282984 315589 93788.8 0.859466 0.570267
Loop time of 3708.82 on 40 procs for 419904 steps with 1512 atoms

  variable cnum equal 66-1

  unfix swp
  thermo_style custom step temp pe

next temp
jump SELF temp_loop

  variable ftemp equal v_temp
  # Electrostatic relaxation-long
  fix  swp fe atom/swap 1 1 3316115 5229 ke no types 1 2
  thermo  1000
  thermo_style custom step v_ftemp pe f_swp[1] f_swp[2] v_rfet3 v_rfeo3
  run  419904
PPPM initialization ...
  G vector (1/distance) = 0.2971196
  grid = 40 40 40
  stencil order = 5
  estimated absolute RMS force accuracy = 0.00037285856
  estimated relative force accuracy = 1.1228525e-06
  3d grid and FFT values/proc = 9367 1600
Step v_ftemp PotEng f_swp[1] f_swp[2] v_rfet3 v_rfeo3
11757312         5229   -282904.19            0            0   0.86111111   0.56944444
Averages over the last 211 of 422 rows, steps 11968000 to 12177216:
v_ftemp PotEng f_swp[1] f_swp[2] v_rfet3 v_rfeo3
5229 -283081 315684 82546.9 0.872608 0.563696
Loop time of 3712.36 on 40 procs for 419904 steps with 1512 atoms

  variable cnum equal 65-1

  unfix swp
  thermo_style custom step temp pe

next temp
jump SELF temp_loop

  variable ftemp equal v_temp
  # Electrostatic relaxation-long
  fix  swp fe atom/swap 1 1 9343451 4706 ke no types 1 2
  thermo  1000
  thermo_style custom step v_ftemp pe f_swp[1] f_swp[2] v_rfet3 v_rfeo3
  run  419904
PPPM initialization ...
  G vector (1/distance) = 0.2971196
  grid = 40 40 40
  stencil order = 5
  estimated absolute RMS force accuracy = 0.00037285856
  estimated relative force accuracy = 1.1228525e-06
  3d grid and FFT values/proc = 9367 1600
Step v_ftemp PotEng f_swp[1] f_swp[2] v_rfet3 v_rfeo3
12177216         4706   -283044.42            0            0   0.84722222   0.57638889
Averages over the last 211 of 422 rows, steps 12388000 to 12597120:
v_ftemp PotEng f_swp[1] f_swp[2] v_rfet3 v_rfeo3
4706 -283178 315780 72103.8 0.889591 0.555204
Loop time of 3713.95 on 40 procs for 419904 steps with 1512 atoms

  variable cnum equal 64-1

  unfix swp
  thermo_style custom step temp pe

next temp
jump SELF temp_loop

  variable ftemp equal v_temp
  # Electrostatic relaxation-long
  fix  swp fe atom/swap 1 1 9813187 4235 ke no types 1 2
  thermo  1000
  thermo_style custom step v_ftemp pe f_swp[1] f_swp[2] v_rfet3 v_rfeo3
  run  419904
PPPM initialization ...
  G vector (1/distance) = 0.2971196
  grid = 40 40 40
  stencil order = 5
  estimated absolute RMS force accuracy = 0.00037285856
  estimated relative force accuracy = 1.1228525e-06
  3d grid and FFT values/proc = 9367 1600
Step v_ftemp PotEng f_swp[1] f_swp[2] v_rfet3 v_rfeo3
12597120         4235    -283164.6            0            0   0.93518519   0.53240741
Averages over the last 211 of 422 rows, steps 12808000 to 13017024:
v_ftemp PotEng f_swp[1] f_swp[2] v_rfet3 v_rfeo3
4235 -283263 315875 61955.8 0.904511 0.547744
Loop time of 3712.22 on 40 procs for 419904 steps with 1512 atoms

  variable cnum equal 63-1

  unfix swp
  thermo_style custom step temp pe

next temp
jump SELF temp_loop

  variable ftemp equal v_temp
  # Electrostatic relaxation-long
  fix  swp fe atom/swap 1 1 3669492 3811 ke no types 1 2
  thermo  1000
  thermo_style custom step v_ftemp pe f_swp[1] f_swp[2] v_rfet3 v_rfeo3
  run  419904
PPPM initialization ...
  G vector (1/distance) = 0.2971196
  grid = 40 40 40
  stencil order = 5
  estimated absolute RMS force accuracy = 0.00037285856
  estimated relative force accuracy = 1.1228525e-06
  3d grid and FFT values/proc = 9367 1600
Step v_ftemp PotEng f_swp[1] f_swp[2] v_rfet3 v_rfeo3
13017024         3811    -283307.7            0            0   0.90277778   0.54861111
Averages over the last 211 of 421 rows, steps 13227000 to 13436928:
v_ftemp PotEng f_swp[1] f_swp[2] v_rfet3 v_rfeo3
3811 -283357 314976 52165 0.921845 0.539078
Loop time of 3716.83 on 40 procs for 419904 steps with 1512 atoms

  variable cnum equal 62-1

  unfix swp
  thermo_style custom step temp pe

next temp
jump SELF temp_loop

  variable ftemp equal v_temp
  # Electrostatic relaxation-long
  fix  swp fe atom/swap 1 1 4337234 3429 ke no types 1 2
  thermo  1000
  thermo_style custom step v_ftemp pe f_swp[1] f_swp[2] v_rfet3 v_rfeo3
  run  419904
PPPM initialization ...
  G vector (1/distance) = 0.2971196
  grid = 40 40 40
  stencil order = 5
  estimated absolute RMS force accuracy = 0.00037285856
  estimated relative force accuracy = 1.1228525e-06
  3d grid and FFT values/proc = 9367 1600
Step v_ftemp PotEng f_swp[1] f_swp[2] v_rfet3 v_rfeo3
13436928         3429   -283273.03            0            0   0.88888889   0.55555556
Averages over the last 211 of 422 rows, steps 13647000 to 13856832:
v_ftemp PotEng f_swp[1] f_swp[2] v_rfet3 v_rfeo3
3429 -283455 315071 43486.1 0.940012 0.529994
Loop time of 3717.76 on 40 procs for 419904 steps with 1512 atoms

  variable cnum equal 61-1

  unfix swp
  thermo_style custom step temp pe

next temp
jump SELF temp_loop

  variable ftemp equal v_temp
  # Electrostatic relaxation-long
  fix  swp fe atom/swap 1 1 8737738 3086 ke no types 1 2
  thermo  1000
  thermo_style custom step v_ftemp pe f_swp[1] f_swp[2] v_rfet3 v_rfeo3
  run  419904
PPPM initialization ...
  G vector (1/distance) = 0.2971196
  grid = 40 40 40
  stencil order = 5
  estimated absolute RMS force accuracy = 0.00037285856
  estimated relative force accuracy = 1.1228525e-06
  3d grid and FFT values/proc = 9367 1600
Step v_ftemp PotEng f_swp[1] f_swp[2] v_rfet3 v_rfeo3
13856832         3086   -283533.04            0            0    0.9537037   0.52314815
Averages over the last 211 of 422 rows, steps 14067000 to 14276736:
v_ftemp PotEng f_swp[1] f_swp[2] v_rfet3 v_rfeo3
3086 -283524 315167 36046.3 0.950369 0.524816
Loop time of 3714.9 on 40 procs for 419904 steps with 1512 atoms

  variable cnum equal 60-1

  unfix swp
  thermo_style custom step temp pe

next temp
jump SELF temp_loop

  variable ftemp equal v_temp
  # Electrostatic relaxation-long
  fix  swp fe atom/swap 1 1 9296387 2777 ke no types 1 2
  thermo  1000
  thermo_style custom step v_ftemp pe f_swp[1] f_swp[2] v_rfet3 v_rfeo3
  run  419904
PPPM initialization ...
  G vector (1/distance) = 0.2971196
  grid = 40 40 40
  stencil order = 5
  estimated absolute RMS force accuracy = 0.00037285856
  estimated relative force accuracy = 1.1228525e-06
  3d grid and FFT values/proc = 9367 1600
Step v_ftemp PotEng f_swp[1] f_swp[2] v_rfet3 v_rfeo3
14276736         2777   -283414.18            0            0   0.91203704   0.54398148
Averages over the last 211 of 422 rows, steps 14487000 to 14696640:
v_ftemp PotEng f_swp[1] f_swp[2] v_rfet3 v_rfeo3
2777 -283590 315262 29576.5 0.961449 0.519275
Loop time of 3712.62 on 40 procs for 419904 steps with 1512 atoms

  variable cnum equal 59-1

  unfix swp
  thermo_style custom step temp pe

next temp
jump SELF temp_loop

  variable ftemp equal v_temp
  # Electrostatic relaxation-long
  fix  swp fe atom/swap 1 1 9088774 2499 ke no types 1 2
  thermo  1000
  thermo_style custom step v_ftemp pe f_swp[1] f_swp[2] v_rfet3 v_rfeo3
  run  419904
PPPM initialization ...
  G vector (1/distance) = 0.2971196
  grid = 40 40 40
  stencil order = 5
  estimated absolute RMS force accuracy = 0.00037285856
  estimated relative force accuracy = 1.1228525e-06
  3d grid and FFT values/proc = 9367 1600
Step v_ftemp PotEng f_swp[1] f_swp[2] v_rfet3 v_rfeo3
14696640         2499   -283601.64            0            0   0.97222222   0.51388889
Averages over the last 211 of 422 rows, steps 14907000 to 15116544:
v_ftemp PotEng f_swp[1] f_swp[2] v_rfet3 v_rfeo3
2499 -283671 315358 23075.3 0.97446 0.51277
Loop time of 3721.36 on 40 procs for 419904 steps with 1512 atoms

  variable cnum equal 58-1

  unfix swp
  thermo_style custom step temp pe

next temp
jump SELF temp_loop

  variable ftemp equal v_temp
  # Electrostatic relaxation-long
  fix  swp fe atom/swap 1 1 5675456 2249 ke no types 1 2
  thermo  1000
  thermo_style custom step v_ftemp pe f_swp[1] f_swp[2] v_rfet3 v_rfeo3
  run  419904
PPPM initialization ...
  G vector (1/distance) = 0.2971196
  grid = 40 40 40
  stencil order = 5
  estimated absolute RMS force accuracy = 0.00037285856
  estimated relative force accuracy = 1.1228525e-06
  3d grid and FFT values/proc = 9367 1600
Step v_ftemp PotEng f_swp[1] f_swp[2] v_rfet3 v_rfeo3
15116544         2249   -283655.44            0            0   0.96759259    0.5162037
Averages over the last 211 of 422 rows, steps 15327000 to 15536448:
v_ftemp PotEng f_swp[1] f_swp[2] v_rfet3 v_rfeo3
2249 -283722 315453 17738.1 0.979287 0.510356
Loop time of 3716.54 on 40 procs for 419904 steps with 1512 atoms

  variable cnum equal 57-1

  unfix swp
  thermo_style custom step temp pe

next temp
jump SELF temp_loop

  variable ftemp equal v_temp
  # Electrostatic relaxation-long
  fix  swp fe atom/swap 1 1 129625 2024 ke no types 1 2
  thermo  1000
  thermo_style custom step v_ftemp pe f_swp[1] f_swp[2] v_rfet3 v_rfeo3
  run  419904
PPPM initialization ...
  G vector (1/distance) = 0.2971196
  grid = 40 40 40
  stencil order = 5
  estimated absolute RMS force accuracy = 0.00037285856
  estimated relative force accuracy = 1.1228525e-06
  3d grid and FFT values/proc = 9367 1600
Step v_ftemp PotEng f_swp[1] f_swp[2] v_rfet3 v_rfeo3
15536448         2024   -283741.13            0            0   0.97685185   0.51157407
Averages over the last 211 of 422 rows, steps 15747000 to 15956352:
v_ftemp PotEng f_swp[1] f_swp[2] v_rfet3 v_rfeo3
2024 -283771 315549 13108.5 0.985409 0.507296
Loop time of 3715.7 on 40 procs for 419904 steps with 1512 atoms

  variable cnum equal 56-1

  unfix swp
  thermo_style custom step temp pe

next temp
jump SELF temp_loop

  variable ftemp equal v_temp
  # Electrostatic relaxation-long
  fix  swp fe atom/swap 1 1 6411397 1821 ke no types 1 2
  thermo  1000
  thermo_style custom step v_ftemp pe f_swp[1] f_swp[2] v_rfet3 v_rfeo3
  run  419904
PPPM initialization ...
  G vector (1/distance) = 0.2971196
  grid = 40 40 40
  stencil order = 5
  estimated absolute RMS force accuracy = 0.00037285856
  estimated relative force accuracy = 1.1228525e-06
  3d grid and FFT values/proc = 9367 1600
Step v_ftemp PotEng f_swp[1] f_swp[2] v_rfet3 v_rfeo3
15956352         1821   -283696.82            0            0   0.98611111   0.50694444
Averages over the last 211 of 422 rows, steps 16167000 to 16376256:
v_ftemp PotEng f_swp[1] f_swp[2] v_rfet3 v_rfeo3
1821 -283818 315644 10079.6 0.990412 0.504794
Loop time of 3716.78 on 40 procs for 419904 steps with 1512 atoms

  variable cnum equal 55-1

  unfix swp
  thermo_style custom step temp pe

next temp
jump SELF temp_loop

  variable ftemp equal v_temp
  # Electrostatic relaxation-long
  fix  swp fe atom/swap 1 1 3177600 1638 ke no types 1 2
  thermo  1000
  thermo_style custom step v_ftemp pe f_swp[1] f_swp[2] v_rfet3 v_rfeo3
  run  419904
PPPM initialization ...
  G vector (1/distance) = 0.2971196
  grid = 40 40 40
  stencil order = 5
  estimated absolute RMS force accuracy = 0.00037285856
  estimated relative force accuracy = 1.1228525e-06
  3d grid and FFT values/proc = 9367 1600
Loop time of 3724.8 on 40 procs for 419904 steps with 1512 atoms

  variable cnum equal 54-1

  unfix swp
  thermo_style custom step temp pe

next temp
jump SELF temp_loop

  variable ftemp equal v_temp
  # Electrostatic relaxation-long
  fix  swp fe atom/swap 1 1 8668979 1474 ke no types 1 2
  thermo  1000
  thermo_style custom step v_ftemp pe f_swp[1] f_swp[2] v_rfet3 v_rfeo3
  run  419904
PPPM initialization ...
  G vector (1/distance) = 0.2971196
  grid = 40 40 40
  stencil order = 5
  estimated absolute RMS force accuracy = 0.00037285856
  estimated relative force accuracy = 1.1228525e-06
  3d grid and FFT values/proc = 9367 1600
Loop time of 3719.54 on 40 procs for 419904 steps with 1512 atoms

  variable cnum equal 53-1

  unfix swp
  thermo_style custom step temp pe

next temp
jump SELF temp_loop

  variable ftemp equal v_temp
  # Electrostatic relaxation-long
  fix  swp fe atom/swap 1 1 3076370 1326 ke no types 1 2
  thermo  1000
  thermo_style custom step v_ftemp pe f_swp[1] f_swp[2] v_rfet3 v_rfeo3
  run  419904
PPPM initialization ...
  G vector (1/distance) = 0.2971196
  grid = 40 40 40
  stencil order = 5
  estimated absolute RMS force accuracy = 0.00037285856
  estimated relative force accuracy = 1.1228525e-06
  3d grid and FFT values/proc = 9367 1600
Loop time of 3719.86 on 40 procs for 419904 steps with 1512 atoms

  variable cnum equal 52-1

  unfix swp
  thermo_style custom step temp pe

next temp
jump SELF temp_loop

  variable ftemp equal v_temp
  # Electrostatic relaxation-long
  fix  swp fe atom/swap 1 1 7996883 1193 ke no types 1 2
  thermo  1000
  thermo_style custom step v_ftemp pe f_swp[1] f_swp[2] v_rfet3 v_rfeo3
  run  419904
PPPM initialization ...
  G vector (1/distance) = 0.2971196
  grid = 40 40 40
  stencil order = 5
  estimated absolute RMS force accuracy = 0.00037285856
  estimated relative force accuracy = 1.1228525e-06
  3d grid and FFT values/proc = 9367 1600
Loop time of 3716.98 on 40 procs for 419904 steps with 1512 atoms

  variable cnum equal 51-1

  unfix swp
  thermo_style custom step temp pe

next temp
jump SELF temp_loop

  variable ftemp equal v_temp
  # Electrostatic relaxation-long
  fix  swp fe atom/swap 1 1 6920765 1073 ke no types 1 2
  thermo  1000
  thermo_style custom step v_ftemp pe f_swp[1] f_swp[2] v_rfet3 v_rfeo3
  run  419904
PPPM initialization ...
  G vector (1/distance) = 0.2971196
  grid = 40 40 40
  stencil order = 5
  estimated absolute RMS force accuracy = 0.00037285856
  estimated relative force accuracy = 1.1228525e-06
  3d grid and FFT values/proc = 9367 1600
Loop time of 3723.08 on 40 procs for 419904 steps with 1512 atoms

  variable cnum equal 50-1

  unfix swp
  thermo_style custom step temp pe

next temp
jump SELF temp_loop

  variable ftemp equal v_temp
  # Electrostatic relaxation-long
  fix  swp fe atom/swap 1 1 4893935 965 ke no types 1 2
  thermo  1000
  thermo_style custom step v_ftemp pe f_swp[1] f_swp[2] v_rfet3 v_rfeo3
  run  419904
PPPM initialization ...
  G vector (1/distance) = 0.2971196
  grid = 40 40 40
  stencil order = 5
  estimated absolute RMS force accuracy = 0.00037285856
  estimated relative force accuracy = 1.1228525e-06
  3d grid and FFT values/proc = 9367 1600
Loop time of 3719.72 on 40 procs for 419904 steps with 1512 atoms

  variable cnum equal 49-1

  unfix swp
  thermo_style custom step temp pe

next temp
jump SELF temp_loop

  variable ftemp equal v_temp
  # Electrostatic relaxation-long
  fix  swp fe atom/swap 1 1 9244496 868 ke no types 1 2
  thermo  1000
  thermo_style custom step v_ftemp pe f_swp[1] f_swp[2] v_rfet3 v_rfeo3
  run  419904
PPPM initialization ...
  G vector (1/distance) = 0.2971196
  grid = 40 40 40
  stencil order = 5
  estimated absolute RMS force accuracy = 0.00037285856
  estimated relative force accuracy = 1.1228525e-06
  3d grid and FFT values/proc = 9367 1600
Loop time of 3720.83 on 40 procs for 419904 steps with 1512 atoms

  variable cnum equal 48-1

  unfix swp
  thermo_style custom step temp pe

next temp
jump SELF temp_loop

  variable ftemp equal v_temp
  # Electrostatic relaxation-long
  fix  swp fe atom/swap 1 1 5825701 781 ke no types 1 2
  thermo  1000
  thermo_style custom step v_ftemp pe f_swp[1] f_swp[2] v_rfet3 v_rfeo3
  run  419904
PPPM initialization ...
  G vector (1/distance) = 0.2971196
  grid = 40 40 40
  stencil order = 5
  estimated absolute RMS force accuracy = 0.00037285856
  estimated relative force accuracy = 1.1228525e-06
  3d grid and FFT values/proc = 9367 1600
Loop time of 3715.73 on 40 procs for 419904 steps with 1512 atoms

  variable cnum equal 47-1

  unfix swp
  thermo_style custom step temp pe

next temp
jump SELF temp_loop

  variable ftemp equal v_temp
  # Electrostatic relaxation-long
  fix  swp fe atom/swap 1 1 2375897 702 ke no types 1 2
  thermo  1000
  thermo_style custom step v_ftemp pe f_swp[1] f_swp[2] v_rfet3 v_rfeo3
  run  419904
PPPM initialization ...
  G vector (1/distance) = 0.2971196
  grid = 40 40 40
  stencil order = 5
  estimated absolute RMS force accuracy = 0.00037285856
  estimated relative force accuracy = 1.1228525e-06
  3d grid and FFT values/proc = 9367 1600
Loop time of 3724.26 on 40 procs for 419904 steps with 1512 atoms

  variable cnum equal 46-1

  unfix swp
  thermo_style custom step temp pe

next temp
jump SELF temp_loop

  variable ftemp equal v_temp
  # Electrostatic relaxation-long
  fix  swp fe atom/swap 1 1 658845 631 ke no types 1 2
  thermo  1000
  thermo_style custom step v_ftemp pe f_swp[1] f_swp[2] v_rfet3 v_rfeo3
  run  419904
PPPM initialization ...
  G vector (1/distance) = 0.2971196
  grid = 40 40 40
  stencil order = 5
  estimated absolute RMS force accuracy = 0.00037285856
  estimated relative force accuracy = 1.1228525e-06
  3d grid and FFT values/proc = 9367 1600
Loop time of 3721.76 on 40 procs for 419904 steps with 1512 atoms

  variable cnum equal 45-1

  unfix swp
  thermo_style custom step temp pe

next temp
jump SELF temp_loop

  variable ftemp equal v_temp
  # Electrostatic relaxation-long
  fix  swp fe atom/swap 1 1 6228661 567 ke no types 1 2
  thermo  1000
  thermo_style custom step v_ftemp pe f_swp[1] f_swp[2] v_rfet3 v_rfeo3
  run  419904
PPPM initialization ...
  G vector (1/distance) = 0.2971196
  grid = 40 40 40
  stencil order = 5
  estimated absolute RMS force accuracy = 0.00037285856
  estimated relative force accuracy = 1.1228525e-06
  3d grid and FFT values/proc = 9367 1600
Loop time of 3720.63 on 40 procs for 419904 steps with 1512 atoms

  variable cnum equal 44-1

  unfix swp
  thermo_style custom step temp pe

next temp
jump SELF temp_loop

  variable ftemp equal v_temp
  # Electrostatic relaxation-long
  fix  swp fe atom/swap 1 1 7694381 510 ke no types 1 2
  thermo  1000
  thermo_style custom step v_ftemp pe f_swp[1] f_swp[2] v_rfet3 v_rfeo3
  run  419904
PPPM initialization ...
  G vector (1/distance) = 0.2971196
  grid = 40 40 40
  stencil order = 5
  estimated absolute RMS force accuracy = 0.00037285856
  estimated relative force accuracy = 1.1228525e-06
  3d grid and FFT values/proc = 9367 1600
Loop time of 3717.75 on 40 procs for 419904 steps with 1512 atoms

  variable cnum equal 43-1

  unfix swp
  thermo_style custom step temp pe

next temp
jump SELF temp_loop

  variable ftemp equal v_temp
  # Electrostatic relaxation-long
  fix  swp fe atom/swap 1 1 3903945 459 ke no types 1 2
  thermo  1000
  thermo_style custom step v_ftemp pe f_swp[1] f_swp[2] v_rfet3 v_rfeo3
  run  419904
PPPM initialization ...
  G vector (1/distance) = 0.2971196
  grid = 40 40 40
  stencil order = 5
  estimated absolute RMS force accuracy = 0.00037285856
  estimated relative force accuracy = 1.1228525e-06
  3d grid and FFT values/proc = 9367 1600
Loop time of 3716.41 on 40 procs for 419904 steps with 1512 atoms

  variable cnum equal 42-1

  unfix swp
  thermo_style custom step temp pe

next temp
jump SELF temp_loop

  variable ftemp equal v_temp
  # Electrostatic relaxation-long
  fix  swp fe atom/swap 1 1 9454489 413 ke no types 1 2
  thermo  1000
  thermo_style custom step v_ftemp pe f_swp[1] f_swp[2] v_rfet3 v_rfeo3
  run  419904
PPPM initialization ...
  G vector (1/distance) = 0.2971196
  grid = 40 40 40
  stencil order = 5
  estimated absolute RMS force accuracy = 0.00037285856
  estimated relative force accuracy = 1.1228525e-06
  3d grid and FFT values/proc = 9367 1600
Loop time of 3712.52 on 40 procs for 419904 steps with 1512 atoms

  variable cnum equal 41-1

  unfix swp
  thermo_style custom step temp pe

next temp
jump SELF temp_loop

  variable ftemp equal v_temp
  # Electrostatic relaxation-long
  fix  swp fe atom/swap 1 1 5910174 371 ke no types 1 2
  thermo  1000
  thermo_style custom step v_ftemp pe f_swp[1] f_swp[2] v_rfet3 v_rfeo3
  run  419904
PPPM initialization ...
  G vector (1/distance) = 0.2971196
  grid = 40 40 40
  stencil order = 5
  estimated absolute RMS force accuracy = 0.00037285856
  estimated relative force accuracy = 1.1228525e-06
  3d grid and FFT values/proc = 9367 1600
Loop time of 3715.53 on 40 procs for 419904 steps with 1512 atoms

  variable cnum equal 40-1

  unfix swp
  thermo_style custom step temp pe

next temp
jump SELF temp_loop

  variable ftemp equal v_temp
  # Electrostatic relaxation-long
  fix  swp fe atom/swap 1 1 1067984 333 ke no types 1 2
  thermo  1000
  thermo_style custom step v_ftemp pe f_swp[1] f_swp[2] v_rfet3 v_rfeo3
  run  419904
PPPM initialization ...
  G vector (1/distance) = 0.2971196
  grid = 40 40 40
  stencil order = 5
  estimated absolute RMS force accuracy = 0.00037285856
  estimated relative force accuracy = 1.1228525e-06
  3d grid and FFT values/proc = 9367 1600
Loop time of 3721.92 on 40 procs for 419904 steps with 1512 atoms

  variable cnum equal 39-1

  unfix swp
  thermo_style custom step temp pe

next temp
jump SELF temp_loop

  variable ftemp equal v_temp
  # Electrostatic relaxation-long
  fix  swp fe atom/swap 1 1 2893895 299 ke no types 1 2
  thermo  1000
  thermo_style custom step v_ftemp pe f_swp[1] f_swp[2] v_rfet3 v_rfeo3
  run  419904
PPPM initialization ...
  G vector (1/distance) = 0.2971196
  grid = 40 40 40
  stencil order = 5
  estimated absolute RMS force accuracy = 0.00037285856
  estimated relative force accuracy = 1.1228525e-06
  3d grid and FFT values/proc = 9367 1600
Loop time of 3720.4 on 40 procs for 419904 steps with 1512 atoms

  variable cnum equal 38-1

  unfix swp
  thermo_style custom step temp pe

next temp
jump SELF temp_loop

  variable ftemp equal v_temp
  # Electrostatic relaxation-long
  fix  swp fe atom/swap 1 1 8575820 269 ke no types 1 2
  thermo  1000
  thermo_style custom step v_ftemp pe f_swp[1] f_swp[2] v_rfet3 v_rfeo3
  run  419904
PPPM initialization ...
  G vector (1/distance) = 0.2971196
  grid = 40 40 40
  stencil order = 5
  estimated absolute RMS force accuracy = 0.00037285856
  estimated relative force accuracy = 1.1228525e-06
  3d grid and FFT values/proc = 9367 1600
Loop time of 3718.84 on 40 procs for 419904 steps with 1512 atoms

  variable cnum equal 37-1

  unfix swp
  thermo_style custom step temp pe

next temp
jump SELF temp_loop

  variable ftemp equal v_temp
  # Electrostatic relaxation-long
  fix  swp fe atom/swap 1 1 8930244 242 ke no types 1 2
  thermo  1000
  thermo_style custom step v_ftemp pe f_swp[1] f_swp[2] v_rfet3 v_rfeo3
  run  419904
PPPM initialization ...
  G vector (1/distance) = 0.2971196
  grid = 40 40 40
  stencil order = 5
  estimated absolute RMS force accuracy = 0.00037285856
  estimated relative force accuracy = 1.1228525e-06
  3d grid and FFT values/proc = 9367 1600
Loop time of 3713.35 on 40 procs for 419904 steps with 1512 atoms

  variable cnum equal 36-1

  unfix swp
  thermo_style custom step temp pe

next temp
jump SELF temp_loop

  variable ftemp equal v_temp
  # Electrostatic relaxation-long
  fix  swp fe atom/swap 1 1 2582118 217 ke no types 1 2
  thermo  1000
  thermo_style custom step v_ftemp pe f_swp[1] f_swp[2] v_rfet3 v_rfeo3
  run  419904
PPPM initialization ...
  G vector (1/distance) = 0.2971196
  grid = 40 40 40
  stencil order = 5
  estimated absolute RMS force accuracy = 0.00037285856
  estimated relative force accuracy = 1.1228525e-06
  3d grid and FFT values/proc = 9367 1600
Loop time of 3718.31 on 40 procs for 419904 steps with 1512 atoms

  variable cnum equal 35-1

  unfix swp
  thermo_style custom step temp pe

next temp
jump SELF temp_loop

  variable ftemp equal v_temp
  # Electrostatic relaxation-long
  fix  swp fe atom/swap 1 1 6127347 195 ke no types 1 2
  thermo  1000
  thermo_style custom step v_ftemp pe f_swp[1] f_swp[2] v_rfet3 v_rfeo3
  run  419904
PPPM initialization ...
  G vector (1/distance) = 0.2971196
  grid = 40 40 40
  stencil order = 5
  estimated absolute RMS force accuracy = 0.00037285856
  estimated relative force accuracy = 1.1228525e-06
  3d grid and FFT values/proc = 9367 1600
Loop time of 3719.72 on 40 procs for 419904 steps with 1512 atoms

  variable cnum equal 34-1

  unfix swp
  thermo_style custom step temp pe

next temp
jump SELF temp_loop

  variable ftemp equal v_temp
  # Electrostatic relaxation-long
  fix  swp fe atom/swap 1 1 3743981 175 ke no types 1 2
  thermo  1000
  thermo_style custom step v_ftemp pe f_swp[1] f_swp[2] v_rfet3 v_rfeo3
  run  419904
PPPM initialization ...
  G vector (1/distance) = 0.2971196
  grid = 40 40 40
  stencil order = 5
  estimated absolute RMS force accuracy = 0.00037285856
  estimated relative force accuracy = 1.1228525e-06
  3d grid and FFT values/proc = 9367 1600
Loop time of 3717.03 on 40 procs for 419904 steps with 1512 atoms

  variable cnum equal 33-1

  unfix swp
  thermo_style custom step temp pe

next temp
jump SELF temp_loop

  variable ftemp equal v_temp
  # Electrostatic relaxation-long
  fix  swp fe atom/swap 1 1 3273207 157 ke no types 1 2
  thermo  1000
  thermo_style custom step v_ftemp pe f_swp[1] f_swp[2] v_rfet3 v_rfeo3
  run  419904
PPPM initialization ...
  G vector (1/distance) = 0.2971196
  grid = 40 40 40
  stencil order = 5
  estimated absolute RMS force accuracy = 0.00037285856
  estimated relative force accuracy = 1.1228525e-06
  3d grid and FFT values/proc = 9367 1600
Loop time of 3717.63 on 40 procs for 419904 steps with 1512 atoms

  variable cnum equal 32-1

  unfix swp
  thermo_style custom step temp pe

next temp
jump SELF temp_loop

  variable ftemp equal v_temp
  # Electrostatic relaxation-long
  fix  swp fe atom/swap 1 1 240566 141 ke no types 1 2
  thermo  1000
  thermo_style custom step v_ftemp pe f_swp[1] f_swp[2] v_rfet3 v_rfeo3
  run  419904
PPPM initialization ...
  G vector (1/distance) = 0.2971196
  grid = 40 40 40
  stencil order = 5
  estimated absolute RMS force accuracy = 0.00037285856
  estimated relative force accuracy = 1.1228525e-06
  3d grid and FFT values/proc = 9367 1600
Loop time of 3712.46 on 40 procs for 419904 steps with 1512 atoms

  variable cnum equal 31-1

  unfix swp
  thermo_style custom step temp pe

next temp
jump SELF temp_loop

  variable ftemp equal v_temp
  # Electrostatic relaxation-long
  fix  swp fe atom/swap 1 1 7452945 126 ke no types 1 2
  thermo  1000
  thermo_style custom step v_ftemp pe f_swp[1] f_swp[2] v_rfet3 v_rfeo3
  run  419904
PPPM initialization ...
  G vector (1/distance) = 0.2971196
  grid = 40 40 40
  stencil order = 5
  estimated absolute RMS force accuracy = 0.00037285856
  estimated relative force accuracy = 1.1228525e-06
  3d grid and FFT values/proc = 9367 1600
Loop time of 3715.64 on 40 procs for 419904 steps with 1512 atoms

  variable cnum equal 30-1

  unfix swp
  thermo_style custom step temp pe

next temp
jump SELF temp_loop

  variable ftemp equal v_temp
  # Electrostatic relaxation-long
  fix  swp fe atom/swap 1 1 9853395 113 ke no types 1 2
  thermo  1000
  thermo_style custom step v_ftemp pe f_swp[1] f_swp[2] v_rfet3 v_rfeo3
  run  419904
PPPM initialization ...
  G vector (1/distance) = 0.2971196
  grid = 40 40 40
  stencil order = 5
  estimated absolute RMS force accuracy = 0.00037285856
  estimated relative force accuracy = 1.1228525e-06
  3d grid and FFT values/proc = 9367 1600
Loop time of 3713.61 on 40 procs for 419904 steps with 1512 atoms

  variable cnum equal 29-1

  unfix swp
  thermo_style custom step temp pe

next temp
jump SELF temp_loop

  variable ftemp equal v_temp
  # Electrostatic relaxation-long
  fix  swp fe atom/swap 1 1 8452553 101 ke no types 1 2
  thermo  1000
  thermo_style custom step v_ftemp pe f_swp[1] f_swp[2] v_rfet3 v_rfeo3
  run  419904
PPPM initialization ...
  G vector (1/distance) = 0.2971196
  grid = 40 40 40
  stencil order = 5
  estimated absolute RMS force accuracy = 0.00037285856
  estimated relative force accuracy = 1.1228525e-06
  3d grid and FFT values/proc = 9367 1600
Loop time of 3711.78 on 40 procs for 419904 steps with 1512 atoms

  variable cnum equal 28-1

  unfix swp
  thermo_style custom step temp pe

next temp
jump SELF temp_loop

  variable ftemp equal v_temp
  # Electrostatic relaxation-long
  fix  swp fe atom/swap 1 1 8678619 90 ke no types 1 2
  thermo  1000
  thermo_style custom step v_ftemp pe f_swp[1] f_swp[2] v_rfet3 v_rfeo3
  run  419904
PPPM initialization ...
  G vector (1/distance) = 0.2971196
  grid = 40 40 40
  stencil order = 5
  estimated absolute RMS force accuracy = 0.00037285856
  estimated relative force accuracy = 1.1228525e-06
  3d grid and FFT values/proc = 9367 1600
Loop time of 3716.46 on 40 procs for 419904 steps with 1512 atoms

  variable cnum equal 27-1

  unfix swp
  thermo_style custom step temp pe

next temp
jump SELF temp_loop

  variable ftemp equal v_temp
  # Electrostatic relaxation-long
  fix  swp fe atom/swap 1 1 2634645 81 ke no types 1 2
  thermo  1000
  thermo_style custom step v_ftemp pe f_swp[1] f_swp[2] v_rfet3 v_rfeo3
  run  419904
PPPM initialization ...
  G vector (1/distance) = 0.2971196
  grid = 40 40 40
  stencil order = 5
  estimated absolute RMS force accuracy = 0.00037285856
  estimated relative force accuracy = 1.1228525e-06
  3d grid and FFT values/proc = 9367 1600
Loop time of 3716.4 on 40 procs for 419904 steps with 1512 atoms

  variable cnum equal 26-1

  unfix swp
  thermo_style custom step temp pe

next temp
jump SELF temp_loop

  variable ftemp equal v_temp
  # Electrostatic relaxation-long
  fix  swp fe atom/swap 1 1 805225 72 ke no types 1 2
  thermo  1000
  thermo_style custom step v_ftemp pe f_swp[1] f_swp[2] v_rfet3 v_rfeo3
  run  419904
PPPM initialization ...
  G vector (1/distance) = 0.2971196
  grid = 40 40 40
  stencil order = 5
  estimated absolute RMS force accuracy = 0.00037285856
  estimated relative force accuracy = 1.1228525e-06
  3d grid and FFT values/proc = 9367 1600
Loop time of 3713.73 on 40 procs for 419904 steps with 1512 atoms

  variable cnum equal 25-1

  unfix swp
  thermo_style custom step temp pe

next temp
jump SELF temp_loop

  variable ftemp equal v_temp
  # Electrostatic relaxation-long
  fix  swp fe atom/swap 1 1 5763377 64 ke no types 1 2
  thermo  1000
  thermo_style custom step v_ftemp pe f_swp[1] f_swp[2] v_rfet3 v_rfeo3
  run  419904
PPPM initialization ...
  G vector (1/distance) = 0.2971196
  grid = 40 40 40
  stencil order = 5
  estimated absolute RMS force accuracy = 0.00037285856
  estimated relative force accuracy = 1.1228525e-06
  3d grid and FFT values/proc = 9367 1600
Loop time of 3715.02 on 40 procs for 419904 steps with 1512 atoms

  variable cnum equal 24-1

  unfix swp
  thermo_style custom step temp pe

next temp
jump SELF temp_loop

  variable ftemp equal v_temp
  # Electrostatic relaxation-long
  fix  swp fe atom/swap 1 1 9067551 57 ke no types 1 2
  thermo  1000
  thermo_style custom step v_ftemp pe f_swp[1] f_swp[2] v_rfet3 v_rfeo3
  run  419904
PPPM initialization ...
  G vector (1/distance) = 0.2971196
  grid = 40 40 40
  stencil order = 5
  estimated absolute RMS force accuracy = 0.00037285856
  estimated relative force accuracy = 1.1228525e-06
  3d grid and FFT values/proc = 9367 1600
Loop time of 3713.07 on 40 procs for 419904 steps with 1512 atoms

  variable cnum equal 23-1

  unfix swp
  thermo_style custom step temp pe

next temp
jump SELF temp_loop

  variable ftemp equal v_temp
  # Electrostatic relaxation-long
  fix  swp fe atom/swap 1 1 8558588 51 ke no types 1 2
  thermo  1000
  thermo_style custom step v_ftemp pe f_swp[1] f_swp[2] v_rfet3 v_rfeo3
  run  419904
PPPM initialization ...
  G vector (1/distance) = 0.2971196
  grid = 40 40 40
  stencil order = 5
  estimated absolute RMS force accuracy = 0.00037285856
  estimated relative force accuracy = 1.1228525e-06
  3d grid and FFT values/proc = 9367 1600
Loop time of 3711.85 on 40 procs for 419904 steps with 1512 atoms

  variable cnum equal 22-1

  unfix swp
  thermo_style custom step temp pe

next temp
jump SELF temp_loop

  variable ftemp equal v_temp
  # Electrostatic relaxation-long
  fix  swp fe atom/swap 1 1 7745743 45 ke no types 1 2
  thermo  1000
  thermo_style custom step v_ftemp pe f_swp[1] f_swp[2] v_rfet3 v_rfeo3
  run  419904
PPPM initialization ...
  G vector (1/distance) = 0.2971196
  grid = 40 40 40
  stencil order = 5
  estimated absolute RMS force accuracy = 0.00037285856
  estimated relative force accuracy = 1.1228525e-06
  3d grid and FFT values/proc = 9367 1600
Loop time of 3712.99 on 40 procs for 419904 steps with 1512 atoms

  variable cnum equal 21-1

  unfix swp
  thermo_style custom step temp pe

next temp
jump SELF temp_loop

  variable ftemp equal v_temp
  # Electrostatic relaxation-long
  fix  swp fe atom/swap 1 1 303549 40 ke no types 1 2
  thermo  1000
  thermo_style custom step v_ftemp pe f_swp[1] f_swp[2] v_rfet3 v_rfeo3
  run  419904
PPPM initialization ...
  G vector (1/distance) = 0.2971196
  grid = 40 40 40
  stencil order = 5
  estimated absolute RMS force accuracy = 0.00037285856
  estimated relative force accuracy = 1.1228525e-06
  3d grid and FFT values/proc = 9367 1600
Loop time of 3708.23 on 40 procs for 419904 steps with 1512 atoms

  variable cnum equal 20-1

  unfix swp
  thermo_style custom step temp pe

next temp
jump SELF temp_loop

  variable ftemp equal v_temp
  # Electrostatic relaxation-long
  fix  swp fe atom/swap 1 1 2195032 36 ke no types 1 2
  thermo  1000
  thermo_style custom step v_ftemp pe f_swp[1] f_swp[2] v_rfet3 v_rfeo3
  run  419904
PPPM initialization ...
  G vector (1/distance) = 0.2971196
  grid = 40 40 40
  stencil order = 5
  estimated absolute RMS force accuracy = 0.00037285856
  estimated relative force accuracy = 1.1228525e-06
  3d grid and FFT values/proc = 9367 1600
Loop time of 3711.01 on 40 procs for 419904 steps with 1512 atoms

  variable cnum equal 19-1

  unfix swp
  thermo_style custom step temp pe

next temp
jump SELF temp_loop

  variable ftemp equal v_temp
  # Electrostatic relaxation-long
  fix  swp fe atom/swap 1 1 3250684 32 ke no types 1 2
  thermo  1000
  thermo_style custom step v_ftemp pe f_swp[1] f_swp[2] v_rfet3 v_rfeo3
  run  419904
PPPM initialization ...
  G vector (1/distance) = 0.2971196
  grid = 40 40 40
  stencil order = 5
  estimated absolute RMS force accuracy = 0.00037285856
  estimated relative force accuracy = 1.1228525e-06
  3d grid and FFT values/proc = 9367 1600
Loop time of 3716.55 on 40 procs for 419904 steps with 1512 atoms

  variable cnum equal 18-1

  unfix swp
  thermo_style custom step temp pe

next temp
jump SELF temp_loop

  variable ftemp equal v_temp
  # Electrostatic relaxation-long
  fix  swp fe atom/swap 1 1 1810735 28 ke no types 1 2
  thermo  1000
  thermo_style custom step v_ftemp pe f_swp[1] f_swp[2] v_rfet3 v_rfeo3
  run  419904
PPPM initialization ...
  G vector (1/distance) = 0.2971196
  grid = 40 40 40
  stencil order = 5
  estimated absolute RMS force accuracy = 0.00037285856
  estimated relative force accuracy = 1.1228525e-06
  3d grid and FFT values/proc = 9367 1600
Loop time of 3719.68 on 40 procs for 419904 steps with 1512 atoms

  variable cnum equal 17-1

  unfix swp
  thermo_style custom step temp pe

next temp
jump SELF temp_loop

  variable ftemp equal v_temp
  # Electrostatic relaxation-long
  fix  swp fe atom/swap 1 1 1251659 25 ke no types 1 2
  thermo  1000
  thermo_style custom step v_ftemp pe f_swp[1] f_swp[2] v_rfet3 v_rfeo3
  run  419904
PPPM initialization ...
  G vector (1/distance) = 0.2971196
  grid = 40 40 40
  stencil order = 5
  estimated absolute RMS force accuracy = 0.00037285856
  estimated relative force accuracy = 1.1228525e-06
  3d grid and FFT values/proc = 9367 1600
Loop time of 3716.66 on 40 procs for 419904 steps with 1512 atoms

  variable cnum equal 16-1

  unfix swp
  thermo_style custom step temp pe

next temp
jump SELF temp_loop

  variable ftemp equal v_temp
  # Electrostatic relaxation-long
  fix  swp fe atom/swap 1 1 1092138 22 ke no types 1 2
  thermo  1000
  thermo_style custom step v_ftemp pe f_swp[1] f_swp[2] v_rfet3 v_rfeo3
  run  419904
PPPM initialization ...
  G vector (1/distance) = 0.2971196
  grid = 40 40 40
  stencil order = 5
  estimated absolute RMS force accuracy = 0.00037285856
  estimated relative force accuracy = 1.1228525e-06
  3d grid and FFT values/proc = 9367 1600
Loop time of 3714.22 on 40 procs for 419904 steps with 1512 atoms

  variable cnum equal 15-1

  unfix swp
  thermo_style custom step temp pe

next temp
jump SELF temp_loop

  variable ftemp equal v_temp
  # Electrostatic relaxation-long
  fix  swp fe atom/swap 1 1 9182673 19 ke no types 1 2
  thermo  1000
  thermo_style custom step v_ftemp pe f_swp[1] f_swp[2] v_rfet3 v_rfeo3
  run  419904
PPPM initialization ...
  G vector (1/distance) = 0.2971196
  grid = 40 40 40
  stencil order = 5
  estimated absolute RMS force accuracy = 0.00037285856
  estimated relative force accuracy = 1.1228525e-06
  3d grid and FFT values/proc = 9367 1600
Loop time of 3717.91 on 40 procs for 419904 steps with 1512 atoms

  variable cnum equal 14-1

  unfix swp
  thermo_style custom step temp pe

next temp
jump SELF temp_loop

  variable ftemp equal v_temp
  # Electrostatic relaxation-long
  fix  swp fe atom/swap 1 1 8523874 17 ke no types 1 2
  thermo  1000
  thermo_style custom step v_ftemp pe f_swp[1] f_swp[2] v_rfet3 v_rfeo3
  run  419904
PPPM initialization ...
  G vector (1/distance) = 0.2971196
  grid = 40 40 40
  stencil order = 5
  estimated absolute RMS force accuracy = 0.00037285856
  estimated relative force accuracy = 1.1228525e-06
  3d grid and FFT values/proc = 9367 1600
Loop time of 3716.64 on 40 procs for 419904 steps with 1512 atoms

  variable cnum equal 13-1

  unfix swp
  thermo_style custom step temp pe

next temp
jump SELF temp_loop

  variable ftemp equal v_temp
  # Electrostatic relaxation-long
  fix  swp fe atom/swap 1 1 7973751 15 ke no types 1 2
  thermo  1000
  thermo_style custom step v_ftemp pe f_swp[1] f_swp[2] v_rfet3 v_rfeo3
  run  419904
PPPM initialization ...
  G vector (1/distance) = 0.2971196
  grid = 40 40 40
  stencil order = 5
  estimated absolute RMS force accuracy = 0.00037285856
  estimated relative force accuracy = 1.1228525e-06
  3d grid and FFT values/proc = 9367 1600
Loop time of 3713.2 on 40 procs for 419904 steps with 1512 atoms

  variable cnum equal 12-1

  unfix swp
  thermo_style custom step temp pe

next temp
jump SELF temp_loop

  variable ftemp equal v_temp
  # Electrostatic relaxation-long
  fix  swp fe atom/swap 1 1 8822405 13 ke no types 1 2
  thermo  1000
  thermo_style custom step v_ftemp pe f_swp[1] f_swp[2] v_rfet3 v_rfeo3
  run  419904
PPPM initialization ...
  G vector (1/distance) = 0.2971196
  grid = 40 40 40
  stencil order = 5
  estimated absolute RMS force accuracy = 0.00037285856
  estimated relative force accuracy = 1.1228525e-06
  3d grid and FFT values/proc = 9367 1600
Loop time of 3717.47 on 40 procs for 419904 steps with 1512 atoms

  variable cnum equal 11-1

  unfix swp
  thermo_style custom step temp pe

next temp
jump SELF temp_loop

  variable ftemp equal v_temp
  # Electrostatic relaxation-long
  fix  swp fe atom/swap 1 1 1866513 11 ke no types 1 2
  thermo  1000
  thermo_style custom step v_ftemp pe f_swp[1] f_swp[2] v_rfet3 v_rfeo3
  run  419904
PPPM initialization ...
  G vector (1/distance) = 0.2971196
  grid = 40 40 40
  stencil order = 5
  estimated absolute RMS force accuracy = 0.00037285856
  estimated relative force accuracy = 1.1228525e-06
  3d grid and FFT values/proc = 9367 1600
Loop time of 3713.9 on 40 procs for 419904 steps with 1512 atoms

  variable cnum equal 10-1

  unfix swp
  thermo_style custom step temp pe

next temp
jump SELF temp_loop

  variable ftemp equal v_temp
  # Electrostatic relaxation-long
  fix  swp fe atom/swap 1 1 2979469 9 ke no types 1 2
  thermo  1000
  thermo_style custom step v_ftemp pe f_swp[1] f_swp[2] v_rfet3 v_rfeo3
  run  419904
PPPM initialization ...
  G vector (1/distance) = 0.2971196
  grid = 40 40 40
  stencil order = 5
  estimated absolute RMS force accuracy = 0.00037285856
  estimated relative force accuracy = 1.1228525e-06
  3d grid and FFT values/proc = 9367 1600
Loop time of 3719.4 on 40 procs for 419904 steps with 1512 atoms

  variable cnum equal 9-1

  unfix swp
  thermo_style custom step temp pe

next temp
jump SELF temp_loop

  variable ftemp equal v_temp
  # Electrostatic relaxation-long
  fix  swp fe atom/swap 1 1 7974133 8 ke no types 1 2
  thermo  1000
  thermo_style custom step v_ftemp pe f_swp[1] f_swp[2] v_rfet3 v_rfeo3
  run  419904
PPPM initialization ...
  G vector (1/distance) = 0.2971196
  grid = 40 40 40
  stencil order = 5
  estimated absolute RMS force accuracy = 0.00037285856
  estimated relative force accuracy = 1.1228525e-06
  3d grid and FFT values/proc = 9367 1600
Loop time of 3715.33 on 40 procs for 419904 steps with 1512 atoms

  variable cnum equal 8-1

  unfix swp
  thermo_style custom step temp pe

next temp
jump SELF temp_loop

  variable ftemp equal v_temp
  # Electrostatic relaxation-long
  fix  swp fe atom/swap 1 1 9540448 7 ke no types 1 2
  thermo  1000
  thermo_style custom step v_ftemp pe f_swp[1] f_swp[2] v_rfet3 v_rfeo3
  run  419904
PPPM initialization ...
  G vector (1/distance) = 0.2971196
  grid = 40 40 40
  stencil order = 5
  estimated absolute RMS force accuracy = 0.00037285856
  estimated relative force accuracy = 1.1228525e-06
  3d grid and FFT values/proc = 9367 1600
Loop time of 3710.44 on 40 procs for 419904 steps with 1512 atoms

  variable cnum equal 7-1

  unfix swp
  thermo_style custom step temp pe

next temp
jump SELF temp_loop

  variable ftemp equal v_temp
  # Electrostatic relaxation-long
  fix  swp fe atom/swap 1 1 396637 6 ke no types 1 2
  thermo  1000
  thermo_style custom step v_ftemp pe f_swp[1] f_swp[2] v_rfet3 v_rfeo3
  run  419904
PPPM initialization ...
  G vector (1/distance) = 0.2971196
  grid = 40 40 40
  stencil order = 5
  estimated absolute RMS force accuracy = 0.00037285856
  estimated relative force accuracy = 1.1228525e-06
  3d grid and FFT values/proc = 9367 1600
Loop time of 3709.63 on 40 procs for 419904 steps with 1512 atoms

  variable cnum equal 6-1

  unfix swp
  thermo_style custom step temp pe

next temp
jump SELF temp_loop

  variable ftemp equal v_temp
  # Electrostatic relaxation-long
  fix  swp fe atom/swap 1 1 2974170 5 ke no types 1 2
  thermo  1000
  thermo_style custom step v_ftemp pe f_swp[1] f_swp[2] v_rfet3 v_rfeo3
  run  419904
PPPM initialization ...
  G vector (1/distance) = 0.2971196
  grid = 40 40 40
  stencil order = 5
  estimated absolute RMS force accuracy = 0.00037285856
  estimated relative force accuracy = 1.1228525e-06
  3d grid and FFT values/proc = 9367 1600
Loop time of 3712.32 on 40 procs for 419904 steps with 1512 atoms

  variable cnum equal 5-1

  unfix swp
  thermo_style custom step temp pe

next temp
jump SELF temp_loop

  variable ftemp equal v_temp
  # Electrostatic relaxation-long
  fix  swp fe atom/swap 1 1 5975054 4 ke no types 1 2
  thermo  1000
  thermo_style custom step v_ftemp pe f_swp[1] f_swp[2] v_rfet3 v_rfeo3
  run  419904
PPPM initialization ...
  G vector (1/distance) = 0.2971196
  grid = 40 40 40
  stencil order = 5
  estimated absolute RMS force accuracy = 0.00037285856
  estimated relative force accuracy = 1.1228525e-06
  3d grid and FFT values/proc = 9367 1600
Loop time of 3711.41 on 40 procs for 419904 steps with 1512 atoms

  variable cnum equal 4-1

  unfix swp
  thermo_style custom step temp pe

next temp
jump SELF temp_loop

  variable ftemp equal v_temp
  # Electrostatic relaxation-long
  fix  swp fe atom/swap 1 1 4221267 3 ke no types 1 2
  thermo  1000
  thermo_style custom step v_ftemp pe f_swp[1] f_swp[2] v_rfet3 v_rfeo3
  run  419904
PPPM initialization ...
  G vector (1/distance) = 0.2971196
  grid = 40 40 40
  stencil order = 5
  estimated absolute RMS force accuracy = 0.00037285856
  estimated relative force accuracy = 1.1228525e-06
  3d grid and FFT values/proc = 9367 1600
Loop time of 3707.43 on 40 procs for 419904 steps with 1512 atoms

  variable cnum equal 3-1

  unfix swp
  thermo_style custom step temp pe

next temp
jump SELF temp_loop

  variable ftemp equal v_temp
  # Electrostatic relaxation-long
  fix  swp fe atom/swap 1 1 7384880 2 ke no types 1 2
  thermo  1000
  thermo_style custom step v_ftemp pe f_swp[1] f_swp[2] v_rfet3 v_rfeo3
  run  419904
PPPM initialization ...
  G vector (1/distance) = 0.2971196
  grid = 40 40 40
  stencil order = 5
  estimated absolute RMS force accuracy = 0.00037285856
  estimated relative force accuracy = 1.1228525e-06
  3d grid and FFT values/proc = 9367 1600
Loop time of 3715.6 on 40 procs for 419904 steps with 1512 atoms

  variable cnum equal 2-1

  unfix swp
  thermo_style custom step temp pe

next temp
jump SELF temp_loop

  variable ftemp equal v_temp
  # Electrostatic relaxation-long
  fix  swp fe atom/swap 1 1 8344972 1 ke no types 1 2
  thermo  1000
  thermo_style custom step v_ftemp pe f_swp[1] f_swp[2] v_rfet3 v_rfeo3
  run  419904
PPPM initialization ...
  G vector (1/distance) = 0.2971196
  grid = 40 40 40
  stencil order = 5
  estimated absolute RMS force accuracy = 0.00037285856
  estimated relative force accuracy = 1.1228525e-06
  3d grid and FFT values/proc = 9367 1600
Loop time of 3715.89 on 40 procs for 419904 steps with 1512 atoms

  variable cnum equal 1-1

  unfix swp
  thermo_style custom step temp pe

next temp
jump SELF temp_loop
label break

thermo_style custom step temp pe
write_data magnetite_3x3_swp.data
System init for write_data ...
PPPM initialization ...
  G vector (1/distance) = 0.2971196
  grid = 40 40 40
  stencil order = 5
  estimated absolute RMS force accuracy = 0.00037285856
  estimated relative force accuracy = 1.1228525e-06
  3d grid and FFT values/proc = 9367 1600

# Full minimization
fix             relax all box/relax x 0.0 y 0.0 couple xy
minimize        1.0e-6 1.0e-9 1000 10000
PPPM initialization ...
  G vector (1/distance) = 0.2971196
  grid = 40 40 40
  stencil order = 5
  estimated absolute RMS force accuracy = 0.00037285856
  estimated relative force accuracy = 1.1228525e-06
  3d grid and FFT values/proc = 9367 1600
Loop time of 0.760472 on 40 procs for 270 steps with 1512 atoms

Minimization stats:
  Stopping criterion = energy tolerance
  Energy initial, next-to-last, final =
  Force two-norm initial, final = 1276.0938 830.92656
  Force max component initial, final = 400.49253 565.24172
  Final line search alpha, max atom move = 1.5153676e-07 8.5654899e-05
  Iterations, force evaluations = 270 271

unfix relax

# Electrostatic relaxation-short
fix  swp fe atom/swap 1 1 4401541 0.1 ke no types 1 2
thermo  1000
thermo_style custom step temp pe f_swp[1] f_swp[2] v_rfet3 v_rfeo3
run  419904
PPPM initialization ...
  G vector (1/distance) = 0.29716793
  grid = 40 40 40
  stencil order = 5
  estimated absolute RMS force accuracy = 0.00037186203
  estimated relative force accuracy = 1.1198515e-06
  3d grid and FFT values/proc = 9367 1600
Loop time of 3733.41 on 40 procs for 419904 steps with 1512 atoms

# Full minimization
fix             relax all box/relax x 0.0 y 0.0 couple xy
minimize        1.0e-6 1.0e-9 1000 10000
PPPM initialization ...
  G vector (1/distance) = 0.29716793
  grid = 40 40 40
  stencil order = 5
  estimated absolute RMS force accuracy = 0.00037186203
  estimated relative force accuracy = 1.1198515e-06
  3d grid and FFT values/proc = 9367 1600
Loop time of 0.00707047 on 40 procs for 1 steps with 1512 atoms

Minimization stats:
  Stopping criterion = energy tolerance
  Energy initial, next-to-last, final =
  Force two-norm initial, final = 829.66703 702.10124
  Force max component initial, final = 564.31588 469.83690
  Final line search alpha, max atom move = 1.7720572e-07 8.3257785e-05
  Iterations, force evaluations = 1 1

unfix relax

thermo_style custom step temp pe
write_data magnetite_3x3x3_min.data
System init for write_data ...
PPPM initialization ...
  G vector (1/distance) = 0.29716495
  grid = 40 40 40
  stencil order = 5
  estimated absolute RMS force accuracy = 0.00037192324
  estimated relative force accuracy = 1.1200358e-06
  3d grid and FFT values/proc = 9367 1600

compute pe all pe
fix print_pe all ave/time 1 1 1 v_rfet3 v_rfeo3 c_pe v_ftemp file magnetite_3x3x3.temp off 1
run 0
PPPM initialization ...
  G vector (1/distance) = 0.29716495
  grid = 40 40 40
  stencil order = 5
  estimated absolute RMS force accuracy = 0.00037192324
  estimated relative force accuracy = 1.1200358e-06
  3d grid and FFT values/proc = 9367 1600
ERROR: Invalid variable reference v_temp in variable formula (../variable.cpp:1859)
Last command: run 0
